Circuit: * D:\pcbs\Leawood\FieldDevice\doc\Spice\SelectiveDivider.asc

WARNING: Specified period is not longer than the sum of Trise, Tfall, and Ton for v1.  Increasing period to 2.3
Direct Newton iteration for .op point succeeded.

Date: Sat Aug 19 15:28:30 2017
Total elapsed time: 0.099 seconds.

tnom = 27
temp = 27
method = modified trap
totiter = 2593
traniter = 2571
tranpoints = 876
accept = 709
rejected = 167
matrix size = 18
fillins = 0
solver = Normal
Matrix Compiler1: 1022 bytes object code size  0.7/0.2/[0.1]
Matrix Compiler2: off  [0.1]/0.1/0.1


